*** C:\Documents and Settings\User\Desktop\Robo Rubik\SchematicBotoesModels.lib ***

*** Spice Control Statements Start ***

.OPTIONS TEMP=27 
.OPTIONS ITL1=5K 
.OPTIONS ITL2=5K 
.OPTIONS ITL4=500 
.OPTIONS GMIN=10p 
.OPTIONS GMINSTEPS=1K 
.OPTIONS SRCSTEPS=5K 
.OPTIONS floatdata=1 
.OP
.AC LIN 50 10 100Meg

*** Spice Control Statements End ***

